@<TRIPOS>MOLECULE
AMN
   28    27     1     0     0
SMALL
No Charge or Current Charge


@<TRIPOS>ATOM
1	N1	-2.8270	-2.4990	0.0380	n8	1	AMN	-1.087809	
2	C1	-1.6070	-1.8430	-0.4490	c3	1	AMN	0.304742	
3	C2	-1.2200	-0.6960	0.4880	c3	1	AMN	0.151111	
4	N2	0.0050	-0.0080	0.0690	n3	1	AMN	-0.869399	
5	C3	0.0260	1.4020	0.4670	c3	1	AMN	0.151111	
6	C4	-0.7440	2.3050	-0.5000	c3	1	AMN	0.304742	
7	N3	-0.7120	3.6920	-0.0190	n8	1	AMN	-1.087809	
8	C5	1.2170	-0.7260	0.4730	c3	1	AMN	0.151111	
9	C6	2.3830	-0.5080	-0.4940	c3	1	AMN	0.304742	
10	N4	3.5710	-1.2220	-0.0080	n8	1	AMN	-1.087809	
11	H1	-3.0110	-3.3550	-0.4730	hn	1	AMN	0.388077	
12	H2	-3.6370	-1.9000	-0.0840	hn	1	AMN	0.388077	
13	H3	-1.6880	-1.4430	-1.4700	h1	1	AMN	0.021889	
14	H4	-0.8120	-2.5940	-0.4640	h1	1	AMN	0.021889	
15	H5	-1.1450	-1.0820	1.5190	h1	1	AMN	0.050911	
16	H6	-2.0390	0.0300	0.4900	h1	1	AMN	0.050911	
17	H7	1.0590	1.7530	0.4930	h1	1	AMN	0.050911	
18	H8	-0.3700	1.5340	1.4920	h1	1	AMN	0.050911	
19	H9	-1.7630	1.9140	-0.6450	h1	1	AMN	0.021889	
20	H10	-0.2500	2.2670	-1.4740	h1	1	AMN	0.021889	
21	H11	-1.2650	3.7980	0.8260	hn	1	AMN	0.388077	
22	H12	-1.0970	4.3270	-0.7100	hn	1	AMN	0.388077	
23	H13	1.0070	-1.7960	0.5050	h1	1	AMN	0.050911	
24	H14	1.5260	-0.4430	1.4970	h1	1	AMN	0.050911	
25	H15	2.5480	0.5690	-0.6430	h1	1	AMN	0.021889	
26	H16	2.1060	-0.9230	-1.4660	h1	1	AMN	0.021889	
27	H17	3.9360	-0.7890	0.8350	hn	1	AMN	0.388077	
28	H18	4.3140	-1.2030	-0.6980	hn	1	AMN	0.388077	
@<TRIPOS>BOND
     1     1     2 1   
     2     1    11 1   
     3     1    12 1   
     4     2     3 1   
     5     2    13 1   
     6     2    14 1   
     7     3     4 1   
     8     3    15 1   
     9     3    16 1   
    10     4     5 1   
    11     4     8 1   
    12     5     6 1   
    13     5    17 1   
    14     5    18 1   
    15     6     7 1   
    16     6    19 1   
    17     6    20 1   
    18     7    21 1   
    19     7    22 1   
    20     8     9 1   
    21     8    23 1   
    22     8    24 1   
    23     9    10 1   
    24     9    25 1   
    25     9    26 1   
    26    10    27 1   
    27    10    28 1   
@<TRIPOS>SUBSTRUCTURE
     1 AMN         1 TEMP              0 ****  ****    0 ROOT
