@<TRIPOS>MOLECULE
MOL
   211    230     1     0     0
SMALL
rc


@<TRIPOS>ATOM
1	C1	-3.606	0.479	0.152	ca	1	MOL	-0.098881
2	C2	-4.293	-0.557	0.734	ca	1	MOL	-0.098881
3	C3	-4.128	-0.597	2.244	c3	1	MOL	0.592034
4	C4	-3.24	0.664	2.534	c3	1	MOL	-0.384600
5	C5	-3.426	-1.894	2.693	c3	1	MOL	-0.415127
6	C6	-2.84	1.318	1.161	c3	1	MOL	0.596522
7	C7	-3.159	2.855	1.073	c3	1	MOL	-0.384600
8	C8	-1.854	3.613	0.648	c3	1	MOL	0.592034
9	C9	-0.812	2.508	0.608	ca	1	MOL	-0.098881
10	C10	-1.346	1.265	0.883	ca	1	MOL	-0.098881
11	C11	-0.545	0.136	0.865	ca	1	MOL	-0.348843
12	C12	0.792	0.278	0.591	ca	1	MOL	0.231673
13	C13	1.331	1.524	0.327	ca	1	MOL	0.231673
14	C14	0.538	2.645	0.326	ca	1	MOL	-0.348843
15	O1	2.689	1.66	0.054	os	1	MOL	-0.266100
16	O2	1.599	-0.857	0.578	os	1	MOL	-0.266100
17	C15	-2.012	4.267	-0.74	c3	1	MOL	-0.415127
18	C16	-1.472	4.684	1.689	c3	1	MOL	-0.415127
19	C17	2.942	-0.717	0.268	ca	1	MOL	0.219007
20	C18	3.47	0.518	-0.013	ca	1	MOL	0.219007
21	C19	4.796	0.644	-0.341	ca	1	MOL	-0.335686
22	C20	5.327	2.011	-0.606	ce	1	MOL	0.733949
23	N1	5.372	2.592	-1.727	n2	1	MOL	-0.478698
24	O3	-5.808	-2.055	-2.266	os	1	MOL	-0.266100
25	C21	-4.384	-0.202	-2.007	ca	1	MOL	0.231673
26	O4	-4.429	0.026	-3.365	os	1	MOL	-0.266100
27	C22	-3.641	0.646	-1.224	ca	1	MOL	-0.348843
28	C23	5.618	-0.475	-0.381	ca	1	MOL	0.219007
29	C24	5.092	-1.729	-0.062	ca	1	MOL	0.219007
30	C25	3.74	-1.841	0.252	ca	1	MOL	-0.335686
31	C26	3.083	-3.145	0.555	ce	1	MOL	0.733949
32	N2	3.388	-3.736	1.64	n2	1	MOL	-0.478698
33	C27	-5.093	-1.251	-1.412	ca	1	MOL	0.231673
34	C28	-5.04	-1.427	-0.048	ca	1	MOL	-0.348843
35	C29	-5.496	-0.477	2.945	c3	1	MOL	-0.415127
36	H1	-2.355	0.391	3.092	hc	1	MOL	0.065125
37	H2	-3.801	1.375	3.124	hc	1	MOL	0.065125
38	H3	-3.309	-1.905	3.772	hc	1	MOL	0.089413
39	H4	-4.007	-2.765	2.407	hc	1	MOL	0.089413
40	H5	-2.444	-1.979	2.243	hc	1	MOL	0.089413
41	H6	-3.49	3.214	2.038	hc	1	MOL	0.065125
42	H7	-3.953	3.029	0.36	hc	1	MOL	0.065125
43	H8	-0.933	-0.844	1.048	ha	1	MOL	0.206754
44	H9	0.991	3.589	0.106	ha	1	MOL	0.206754
45	H10	-1.078	4.713	-1.064	hc	1	MOL	0.089413
46	H11	-2.315	3.535	-1.478	hc	1	MOL	0.089413
47	H12	-2.766	5.048	-0.702	hc	1	MOL	0.089413
48	H13	-0.551	5.183	1.409	hc	1	MOL	0.089413
49	H14	-2.254	5.434	1.76	hc	1	MOL	0.089413
50	H15	-1.334	4.233	2.665	hc	1	MOL	0.089413
51	H16	-3.1	1.432	-1.707	ha	1	MOL	0.206754
52	H17	-5.577	-2.23	0.413	ha	1	MOL	0.206754
53	H18	-5.365	-0.431	4.022	hc	1	MOL	0.089413
54	H19	-6.012	0.418	2.619	hc	1	MOL	0.089413
55	H20	-6.122	-1.334	2.719	hc	1	MOL	0.089413
56	N3	5.841	2.621	0.503	nh	1	MOL	-0.867676
57	H21	5.692	2.235	1.406	hn	1	MOL	0.363006
58	H22	6.214	3.542	0.423	hn	1	MOL	0.363006
59	N4	2.232	-3.606	-0.385	nh	1	MOL	-0.867676
60	H23	1.745	-4.454	-0.197	hn	1	MOL	0.363006
61	H24	1.967	-3.037	-1.156	hn	1	MOL	0.363006
62	O5	2.633	-4.995	1.714	oh	1	MOL	-0.438110
63	H25	2.962	-5.392	2.529	ho	1	MOL	0.430820
64	O6	4.849	1.706	-2.764	oh	1	MOL	-0.438110
65	H26	4.832	2.287	-3.535	ho	1	MOL	0.430820
66	C30	-6.642	-3.106	-1.756	c3	1	MOL	-0.270000
67	H27	-6.059	-3.859	-1.239	h1	1	MOL	0.090000
68	H28	-7.398	-2.715	-1.087	h1	1	MOL	0.090000
69	H29	-7.114	-3.545	-2.62	h1	1	MOL	0.090000
70	C31	-3.907	-0.996	-4.256	c3	1	MOL	-0.270000
71	H30	-4.58	-1.833	-4.298	h1	1	MOL	0.090000
72	H31	-3.824	-0.523	-5.221	h1	1	MOL	0.090000
73	H32	-2.929	-1.326	-3.926	h1	1	MOL	0.090000
74	C1	22.094	0.7789999999999999	3.152	ca	1	MOL	-0.098881
75	C2	21.407	-0.25700000000000006	3.734	ca	1	MOL	-0.098881
76	C3	21.572	-0.297	5.244	c3	1	MOL	0.592034
77	C4	22.46	0.964	5.534	c3	1	MOL	-0.384600
78	C5	22.274	-1.5939999999999999	5.693	c3	1	MOL	-0.415127
79	C6	22.86	1.618	4.161	c3	1	MOL	0.596522
80	C7	22.541	3.155	4.073	c3	1	MOL	-0.384600
81	C8	23.846	3.913	3.648	c3	1	MOL	0.592034
82	C9	24.887999999999998	2.808	3.608	ca	1	MOL	-0.098881
83	C10	24.354	1.565	3.883	ca	1	MOL	-0.098881
84	C11	25.154999999999998	0.436	3.865	ca	1	MOL	-0.348843
85	C12	26.492	0.5780000000000001	3.591	ca	1	MOL	0.231673
86	C13	27.031	1.824	3.327	ca	1	MOL	0.231673
87	C14	26.238	2.945	3.326	ca	1	MOL	-0.348843
88	O1	28.389	1.96	3.054	os	1	MOL	-0.266100
89	O2	27.299	-0.5569999999999999	3.578	os	1	MOL	-0.266100
90	C15	23.688	4.567	2.26	c3	1	MOL	-0.415127
91	C16	24.227999999999998	4.984	4.689	c3	1	MOL	-0.415127
92	C17	28.642	-0.417	3.268	ca	1	MOL	0.219007
93	C18	29.169999999999998	0.8180000000000001	2.987	ca	1	MOL	0.219007
94	C19	30.496	0.944	2.659	ca	1	MOL	-0.335686
95	C20	31.027	2.311	2.394	ce	1	MOL	0.733949
96	N1	31.072	2.892	1.273	n2	1	MOL	-0.478698
97	O3	19.892	-1.7550000000000001	0.734	os	1	MOL	-0.266100
98	C21	21.316	0.09799999999999998	0.9929999999999999	ca	1	MOL	0.231673
99	O4	21.271	0.326	-0.3650000000000002	os	1	MOL	-0.266100
100	C22	22.058999999999997	0.946	1.776	ca	1	MOL	-0.348843
101	C23	31.317999999999998	-0.175	2.6189999999999998	ca	1	MOL	0.219007
102	C24	30.791999999999998	-1.429	2.938	ca	1	MOL	0.219007
103	C25	29.439999999999998	-1.541	3.252	ca	1	MOL	-0.335686
104	C26	28.783	-2.845	3.555	ce	1	MOL	0.733949
105	N2	29.088	-3.4360000000000004	4.64	n2	1	MOL	-0.478698
106	C27	20.607	-0.9509999999999998	1.588	ca	1	MOL	0.231673
107	C28	20.66	-1.127	2.952	ca	1	MOL	-0.348843
108	C29	20.204	-0.177	5.945	c3	1	MOL	-0.415127
109	H1	23.345	0.6910000000000001	6.0920000000000005	hc	1	MOL	0.065125
110	H2	21.899	1.675	6.1240000000000006	hc	1	MOL	0.065125
111	H3	22.391	-1.605	6.772	hc	1	MOL	0.089413
112	H4	21.692999999999998	-2.4650000000000003	5.407	hc	1	MOL	0.089413
113	H5	23.256	-1.679	5.243	hc	1	MOL	0.089413
114	H6	22.21	3.514	5.038	hc	1	MOL	0.065125
115	H7	21.747	3.3289999999999997	3.36	hc	1	MOL	0.065125
116	H8	24.767	-0.544	4.048	ha	1	MOL	0.206754
117	H9	26.691	3.889	3.106	ha	1	MOL	0.206754
118	H10	24.622	5.013	1.936	hc	1	MOL	0.089413
119	H11	23.384999999999998	3.835	1.522	hc	1	MOL	0.089413
120	H12	22.933999999999997	5.348	2.298	hc	1	MOL	0.089413
121	H13	25.149	5.483	4.409	hc	1	MOL	0.089413
122	H14	23.445999999999998	5.734	4.76	hc	1	MOL	0.089413
123	H15	24.366	4.5329999999999995	5.665	hc	1	MOL	0.089413
124	H16	22.599999999999998	1.732	1.293	ha	1	MOL	0.206754
125	H17	20.122999999999998	-1.93	3.413	ha	1	MOL	0.206754
126	H18	20.335	-0.131	7.022	hc	1	MOL	0.089413
127	H19	19.688	0.718	5.619	hc	1	MOL	0.089413
128	H20	19.578	-1.034	5.718999999999999	hc	1	MOL	0.089413
129	N3	31.541	2.921	3.503	nh	1	MOL	-0.867676
130	H21	31.392	2.5349999999999997	4.406	hn	1	MOL	0.363006
131	H22	31.914	3.8419999999999996	3.423	hn	1	MOL	0.363006
132	N4	27.932	-3.306	2.615	nh	1	MOL	-0.867676
133	H23	27.445	-4.154	2.803	hn	1	MOL	0.363006
134	H24	27.666999999999998	-2.737	1.844	hn	1	MOL	0.363006
135	O5	28.333	-4.695	4.714	oh	1	MOL	-0.438110
136	H25	28.662	-5.0920000000000005	5.529	ho	1	MOL	0.430820
137	O6	30.549	2.006	0.2360000000000002	oh	1	MOL	-0.438110
138	H26	30.532	2.5869999999999997	-0.5350000000000001	ho	1	MOL	0.430820
139	C1	47.794	1.079	6.152	ca	1	MOL	-0.098881
140	C2	47.107	0.04299999999999993	6.734	ca	1	MOL	-0.098881
141	C3	47.272	0.0030000000000000027	8.244	c3	1	MOL	0.592034
142	C4	48.16	1.264	8.533999999999999	c3	1	MOL	-0.384600
143	C5	47.974	-1.294	8.693	c3	1	MOL	-0.415127
144	C6	48.56	1.9180000000000001	7.161	c3	1	MOL	0.596522
145	C7	48.241	3.455	7.073	c3	1	MOL	-0.384600
146	C8	49.546	4.213	6.648	c3	1	MOL	0.592034
147	C9	50.588	3.108	6.608	ca	1	MOL	-0.098881
148	C10	50.054	1.8649999999999998	6.883	ca	1	MOL	-0.098881
149	C11	50.855	0.736	6.865	ca	1	MOL	-0.348843
150	C12	52.192	0.878	6.591	ca	1	MOL	0.231673
151	C13	52.731	2.124	6.327	ca	1	MOL	0.231673
152	C14	51.937999999999995	3.245	6.326	ca	1	MOL	-0.348843
153	O1	54.089	2.26	6.054	os	1	MOL	-0.266100
154	O2	52.998999999999995	-0.257	6.578	os	1	MOL	-0.266100
155	C15	49.388	4.867	5.26	c3	1	MOL	-0.415127
156	C16	49.928	5.284	7.689	c3	1	MOL	-0.415127
157	C17	54.342	-0.11699999999999999	6.268	ca	1	MOL	0.219007
158	C18	54.87	1.1179999999999999	5.987	ca	1	MOL	0.219007
159	C19	56.196	1.244	5.659	ca	1	MOL	-0.335686
160	C20	56.727	2.611	5.394	ce	1	MOL	0.733949
161	N1	56.772	3.192	4.273	n2	1	MOL	-0.478698
162	O3	45.592	-1.455	3.734	os	1	MOL	-0.266100
163	C21	47.016	0.39799999999999996	3.993	ca	1	MOL	0.231673
164	O4	46.971	0.626	2.635	os	1	MOL	-0.266100
165	C22	47.759	1.246	4.776	ca	1	MOL	-0.348843
166	C23	57.018	0.125	5.619	ca	1	MOL	0.219007
167	C24	56.492	-1.129	5.938	ca	1	MOL	0.219007
168	C25	55.14	-1.241	6.252	ca	1	MOL	-0.335686
169	C26	54.483	-2.545	6.555	ce	1	MOL	0.733949
170	N2	54.788	-3.136	7.64	n2	1	MOL	-0.478698
171	C27	46.307	-0.6509999999999999	4.588	ca	1	MOL	0.231673
172	C28	46.36	-0.8270000000000001	5.952	ca	1	MOL	-0.348843
173	C29	45.903999999999996	0.123	8.945	c3	1	MOL	-0.415127
174	H1	49.045	0.991	9.092	hc	1	MOL	0.065125
175	H2	47.599	1.975	9.124	hc	1	MOL	0.065125
176	H3	48.091	-1.3050000000000002	9.772	hc	1	MOL	0.089413
177	H4	47.393	-2.165	8.407	hc	1	MOL	0.089413
178	H5	48.955999999999996	-1.379	8.243	hc	1	MOL	0.089413
179	H6	47.91	3.814	8.038	hc	1	MOL	0.065125
180	H7	47.446999999999996	3.629	6.36	hc	1	MOL	0.065125
181	H8	50.467	-0.244	7.048	ha	1	MOL	0.206754
182	H9	52.391	4.189	6.106	ha	1	MOL	0.206754
183	H10	50.321999999999996	5.313	4.936	hc	1	MOL	0.089413
184	H11	49.085	4.135	4.522	hc	1	MOL	0.089413
185	H12	48.634	5.648	5.298	hc	1	MOL	0.089413
186	H13	50.849	5.7829999999999995	7.409	hc	1	MOL	0.089413
187	H14	49.146	6.034	7.76	hc	1	MOL	0.089413
188	H15	50.065999999999995	4.832999999999999	8.665	hc	1	MOL	0.089413
189	H16	48.3	2.032	4.293	ha	1	MOL	0.206754
190	H17	45.823	-1.63	6.413	ha	1	MOL	0.206754
191	H18	46.035	0.16899999999999998	10.022	hc	1	MOL	0.089413
192	H19	45.388	1.018	8.619	hc	1	MOL	0.089413
193	H20	45.278	-0.7340000000000001	8.719	hc	1	MOL	0.089413
194	N3	57.241	3.221	6.503	nh	1	MOL	-0.867676
195	H21	57.092	2.835	7.406	hn	1	MOL	0.363006
196	H22	57.614	4.1419999999999995	6.423	hn	1	MOL	0.363006
197	N4	53.632	-3.006	5.615	nh	1	MOL	-0.867676
198	H23	53.144999999999996	-3.8539999999999996	5.803	hn	1	MOL	0.363006
199	H24	53.367	-2.437	4.844	hn	1	MOL	0.363006
200	O5	54.033	-4.3950000000000005	7.714	oh	1	MOL	-0.438110
201	H25	54.362	-4.792000000000001	8.529	ho	1	MOL	0.430820
202	O6	56.248999999999995	2.306	3.236	oh	1	MOL	-0.438110
203	H26	56.232	2.887	2.465	ho	1	MOL	0.430820
204	C32	57.39	-2.354	5.916	c3	1	MOL	-0.270000
205	H33	56.924	-3.1759999999999997	6.434	hc	1	MOL	0.090000
206	H34	57.599	-2.655	4.893	hc	1	MOL	0.090000
207	H35	58.333	-2.14	6.4030000000000005	hc	1	MOL	0.090000
208	C33	58.478	0.27499999999999997	5.232	c3	1	MOL	-0.270000
209	H36	58.657	1.24	4.782	hc	1	MOL	0.090000
210	H37	59.122	0.176	6.101	hc	1	MOL	0.090000
211	H38	58.76	-0.4840000000000001	4.514	hc	1	MOL	0.090000
@<TRIPOS>BOND
1	1	2	ar
2	1	6	1
3	1	27	ar
4	2	3	1
5	2	34	ar
6	3	4	1
7	3	5	1
8	3	35	1
9	4	6	1
10	4	36	1
11	4	37	1
12	5	38	1
13	5	39	1
14	5	40	1
15	6	7	1
16	6	10	1
17	7	8	1
18	7	41	1
19	7	42	1
20	8	9	1
21	8	17	1
22	8	18	1
23	9	10	ar
24	9	14	ar
25	10	11	ar
26	11	12	ar
27	11	43	1
28	12	13	ar
29	12	16	1
30	13	14	ar
31	13	15	1
32	14	44	1
33	15	20	1
34	16	19	1
35	17	45	1
36	17	46	1
37	17	47	1
38	18	48	1
39	18	49	1
40	18	50	1
41	19	20	ar
42	19	30	ar
43	20	21	ar
44	21	22	1
45	21	28	ar
46	22	23	2
47	22	56	1
48	23	64	1
49	24	33	1
50	24	66	1
51	25	26	1
52	25	27	ar
53	25	33	ar
54	26	70	1
55	27	51	1
56	28	29	ar
57	29	30	ar
58	30	31	1
59	31	32	2
60	31	59	1
61	32	62	1
62	33	34	ar
63	34	52	1
64	35	53	1
65	35	54	1
66	35	55	1
67	56	57	1
68	56	58	1
69	59	60	1
70	59	61	1
71	62	63	1
72	64	65	1
73	66	67	1
74	66	68	1
75	66	69	1
76	70	71	1
77	70	72	1
78	70	73	1
79	74	75	ar
80	74	79	1
81	74	100	ar
82	75	76	1
83	75	107	ar
84	76	77	1
85	76	78	1
86	76	108	1
87	77	79	1
88	77	109	1
89	77	110	1
90	78	111	1
91	78	112	1
92	78	113	1
93	79	80	1
94	79	83	1
95	80	81	1
96	80	114	1
97	80	115	1
98	81	82	1
99	81	90	1
100	81	91	1
101	82	83	ar
102	82	87	ar
103	83	84	ar
104	84	85	ar
105	84	116	1
106	85	86	ar
107	85	89	1
108	86	87	ar
109	86	88	1
110	87	117	1
111	88	93	1
112	89	92	1
113	90	118	1
114	90	119	1
115	90	120	1
116	91	121	1
117	91	122	1
118	91	123	1
119	92	93	ar
120	92	103	ar
121	93	94	ar
122	94	95	1
123	94	101	ar
124	95	96	2
125	95	129	1
126	96	137	1
127	97	106	1
128	98	99	1
129	98	100	ar
130	98	106	ar
131	100	124	1
132	101	102	ar
133	102	103	ar
134	103	104	1
135	104	105	2
136	104	132	1
137	105	135	1
138	106	107	ar
139	107	125	1
140	108	126	1
141	108	127	1
142	108	128	1
143	129	130	1
144	129	131	1
145	132	133	1
146	132	134	1
147	135	136	1
148	137	138	1
149	29	99	1
150	28	97	1
151	139	140	ar
152	139	144	1
153	139	165	ar
154	140	141	1
155	140	172	ar
156	141	142	1
157	141	143	1
158	141	173	1
159	142	144	1
160	142	174	1
161	142	175	1
162	143	176	1
163	143	177	1
164	143	178	1
165	144	145	1
166	144	148	1
167	145	146	1
168	145	179	1
169	145	180	1
170	146	147	1
171	146	155	1
172	146	156	1
173	147	148	ar
174	147	152	ar
175	148	149	ar
176	149	150	ar
177	149	181	1
178	150	151	ar
179	150	154	1
180	151	152	ar
181	151	153	1
182	152	182	1
183	153	158	1
184	154	157	1
185	155	183	1
186	155	184	1
187	155	185	1
188	156	186	1
189	156	187	1
190	156	188	1
191	157	158	ar
192	157	168	ar
193	158	159	ar
194	159	160	1
195	159	166	ar
196	160	161	2
197	160	194	1
198	161	202	1
199	162	171	1
200	163	164	1
201	163	165	ar
202	163	171	ar
203	165	189	1
204	166	167	ar
205	166	208	1
206	167	168	ar
207	167	204	1
208	168	169	1
209	169	170	2
210	169	197	1
211	170	200	1
212	171	172	ar
213	172	190	1
214	173	191	1
215	173	192	1
216	173	193	1
217	194	195	1
218	194	196	1
219	197	198	1
220	197	199	1
221	200	201	1
222	202	203	1
223	204	205	1
224	204	206	1
225	204	207	1
226	208	209	1
227	208	210	1
228	208	211	1
229	102	164	1
230	101	162	1
@<TRIPOS>SUBSTRUCTURE
     1 MOL         1 TEMP              0 ****  ****    0 ROOT
