@<TRIPOS>MOLECULE
MOL
   73    78     1     0     0
SMALL
rc


@<TRIPOS>ATOM
1	C1	-3.6060	0.4790	0.1520	ca	1	MOL	-0.098881
2	C2	-4.2930	-0.5570	0.7340	ca	1	MOL	-0.098881
3	C3	-4.1280	-0.5970	2.2440	c3	1	MOL	0.592034
4	C4	-3.2400	0.6640	2.5340	c3	1	MOL	-0.384600
5	C5	-3.4260	-1.8940	2.6930	c3	1	MOL	-0.415127
6	C6	-2.8400	1.3180	1.1610	c3	1	MOL	0.596522
7	C7	-3.1590	2.8550	1.0730	c3	1	MOL	-0.384600
8	C8	-1.8540	3.6130	0.6480	c3	1	MOL	0.592034
9	C9	-0.8120	2.5080	0.6080	ca	1	MOL	-0.098881
10	C10	-1.3460	1.2650	0.8830	ca	1	MOL	-0.098881
11	C11	-0.5450	0.1360	0.8650	ca	1	MOL	-0.348843
12	C12	0.7920	0.2780	0.5910	ca	1	MOL	0.231673
13	C13	1.3310	1.5240	0.3270	ca	1	MOL	0.231673
14	C14	0.5380	2.6450	0.3260	ca	1	MOL	-0.348843
15	O1	2.6890	1.6600	0.0540	os	1	MOL	-0.266100
16	O2	1.5990	-0.8570	0.5780	os	1	MOL	-0.266100
17	C15	-2.0120	4.2670	-0.7400	c3	1	MOL	-0.415127
18	C16	-1.4720	4.6840	1.6890	c3	1	MOL	-0.415127
19	C17	2.9420	-0.7170	0.2680	ca	1	MOL	0.219007
20	C18	3.4700	0.5180	-0.0130	ca	1	MOL	0.219007
21	C19	4.7960	0.6440	-0.3410	ca	1	MOL	-0.335686
22	C20	5.3270	2.0110	-0.6060	ce	1	MOL	0.733949
23	N1	5.3720	2.5920	-1.7270	n2	1	MOL	-0.478698
24	O3	-5.8080	-2.0550	-2.2660	os	1	MOL	-0.266100
25	C21	-4.3840	-0.2020	-2.0070	ca	1	MOL	0.231673
26	O4	-4.4290	0.0260	-3.3650	os	1	MOL	-0.266100
27	C22	-3.6410	0.6460	-1.2240	ca	1	MOL	-0.348843
28	C23	5.6180	-0.4750	-0.3810	ca	1	MOL	0.219007
29	C24	5.0920	-1.7290	-0.0620	ca	1	MOL	0.219007
30	C25	3.7400	-1.8410	0.2520	ca	1	MOL	-0.335686
31	C26	3.0830	-3.1450	0.5550	ce	1	MOL	0.733949
32	N2	3.3880	-3.7360	1.6400	n2	1	MOL	-0.478698
33	C27	-5.0930	-1.2510	-1.4120	ca	1	MOL	0.231673
34	C28	-5.0400	-1.4270	-0.0480	ca	1	MOL	-0.348843
35	C29	-5.4960	-0.4770	2.9450	c3	1	MOL	-0.415127
36	H1	-2.3550	0.3910	3.0920	hc	1	MOL	0.065125
37	H2	-3.8010	1.3750	3.1240	hc	1	MOL	0.065125
38	H3	-3.3090	-1.9050	3.7720	hc	1	MOL	0.089413
39	H4	-4.0070	-2.7650	2.4070	hc	1	MOL	0.089413
40	H5	-2.4440	-1.9790	2.2430	hc	1	MOL	0.089413
41	H6	-3.4900	3.2140	2.0380	hc	1	MOL	0.065125
42	H7	-3.9530	3.0290	0.3600	hc	1	MOL	0.065125
43	H8	-0.9330	-0.8440	1.0480	ha	1	MOL	0.206754
44	H9	0.9910	3.5890	0.1060	ha	1	MOL	0.206754
45	H10	-1.0780	4.7130	-1.0640	hc	1	MOL	0.089413
46	H11	-2.3150	3.5350	-1.4780	hc	1	MOL	0.089413
47	H12	-2.7660	5.0480	-0.7020	hc	1	MOL	0.089413
48	H13	-0.5510	5.1830	1.4090	hc	1	MOL	0.089413
49	H14	-2.2540	5.4340	1.7600	hc	1	MOL	0.089413
50	H15	-1.3340	4.2330	2.6650	hc	1	MOL	0.089413
51	H16	-3.1000	1.4320	-1.7070	ha	1	MOL	0.206754
52	H17	-5.5770	-2.2300	0.4130	ha	1	MOL	0.206754
53	H18	-5.3650	-0.4310	4.0220	hc	1	MOL	0.089413
54	H19	-6.0120	0.4180	2.6190	hc	1	MOL	0.089413
55	H20	-6.1220	-1.3340	2.7190	hc	1	MOL	0.089413
56	N3	5.8410	2.6210	0.5030	nh	1	MOL	-0.867676
57	H21	5.6920	2.2350	1.4060	hn	1	MOL	0.363006
58	H22	6.2140	3.5420	0.4230	hn	1	MOL	0.363006
59	N4	2.2320	-3.6060	-0.3850	nh	1	MOL	-0.867676
60	H23	1.7450	-4.4540	-0.1970	hn	1	MOL	0.363006
61	H24	1.9670	-3.0370	-1.1560	hn	1	MOL	0.363006
62	O5	2.6330	-4.9950	1.7140	oh	1	MOL	-0.438110
63	H25	2.9620	-5.3920	2.5290	ho	1	MOL	0.430820
64	O6	4.8490	1.7060	-2.7640	oh	1	MOL	-0.438110
65	H26	4.8320	2.2870	-3.5350	ho	1	MOL	0.430820
66	C32	5.9900	-2.9540	-0.0840	c3	1	MOL	-0.270000
67	H33	5.5240	-3.7760	0.4340	hc	1	MOL	0.090000
68	H34	6.1990	-3.2550	-1.1070	hc	1	MOL	0.090000
69	H35	6.9330	-2.7400	0.4030	hc	1	MOL	0.090000
70	C33	7.0780	-0.3250	-0.7680	c3	1	MOL	-0.270000
71	H36	7.2570	0.6400	-1.2180	hc	1	MOL	0.090000
72	H37	7.7220	-0.4240	0.1010	hc	1	MOL	0.090000
73	H38	7.3600	-1.0840	-1.4860	hc	1	MOL	0.090000
@<TRIPOS>BOND
1	1	2	ar
2	1	6	1
3	1	27	ar
4	2	3	1
5	2	34	ar
6	3	4	1
7	3	5	1
8	3	35	1
9	4	6	1
10	4	36	1
11	4	37	1
12	5	38	1
13	5	39	1
14	5	40	1
15	6	7	1
16	6	10	1
17	7	8	1
18	7	41	1
19	7	42	1
20	8	9	1
21	8	17	1
22	8	18	1
23	9	10	ar
24	9	14	ar
25	10	11	ar
26	11	12	ar
27	11	43	1
28	12	13	ar
29	12	16	1
30	13	14	ar
31	13	15	1
32	14	44	1
33	15	20	1
34	16	19	1
35	17	45	1
36	17	46	1
37	17	47	1
38	18	48	1
39	18	49	1
40	18	50	1
41	19	20	ar
42	19	30	ar
43	20	21	ar
44	21	22	1
45	21	28	ar
46	22	23	2
47	22	56	1
48	23	64	1
49	24	33	1
50	25	26	1
51	25	27	ar
52	25	33	ar
53	27	51	1
54	28	29	ar
55	28	70	1
56	29	30	ar
57	29	66	1
58	30	31	1
59	31	32	2
60	31	59	1
61	32	62	1
62	33	34	ar
63	34	52	1
64	35	53	1
65	35	54	1
66	35	55	1
67	56	57	1
68	56	58	1
69	59	60	1
70	59	61	1
71	62	63	1
72	64	65	1
73	66	67	1
74	66	68	1
75	66	69	1
76	70	71	1
77	70	72	1
78	70	73	1
@<TRIPOS>SUBSTRUCTURE
     1 MOL         1 TEMP              0 ****  ****    0 ROOT
